** written by FreeCAD inp file writer for CalculiX,Abaqus meshes
** highest dimension mesh elements only.

** Nodes
*Node, NSET=Nall
1, 22.41766517206, 11.06563546451, 0
2, 22.41766517206, -11.06563546451, 0
3, 22.41766517206, 11.06563546451, 10
4, 22.41766517206, -11.06563546451, 10
5, 24.13313056654, 9.952405844555, 0
6, 24.13313056654, -9.952405844555, 0
7, 87.00961894323, 7.5, 0
8, 87.00961894323, -7.5, 0
9, 59.68801492031, 3.603437179585e-13, 0
10, 15, 0, 0
11, 110, 8.053409936855e-26, 0
12, 24.13313056654, 9.952405844555, 10
13, 24.13313056654, -9.952405844555, 10
14, 87.00961894323, 7.5, 10
15, 87.00961894323, -7.5, 10
16, 59.68801492031, 3.603437179585e-13, 10
17, 15, 0, 10
18, 110, 8.053409936855e-26, 10
19, 20.39981697817, 14.4515558767, 0
20, 17.87487279817, 17.47824140036, 0
** ... 6646 like lines cut


** Volume elements
*Element, TYPE=C3D10, ELSET=Evolumes
2410, 2249, 2161, 2079, 4226, 2363, 2738, 2739, 4314, 4313, 4315
2411, 1168, 1256, 1086, 4226, 1365, 1857, 1860, 4317, 4316, 4318
2412, 691, 1252, 1109, 4292, 4320, 1320, 4319, 4322, 4321, 4323
2413, 2083, 2147, 2243, 4227, 2790, 2332, 2793, 4325, 4324, 4326
2414, 4216, 2140, 4222, 4311, 4329, 4327, 4328, 4331, 4330, 4332
2415, 4224, 1147, 4216, 4273, 4335, 4333, 4334, 4337, 4336, 4338
2416, 4216, 4222, 4224, 4273, 4328, 4339, 4334, 4338, 4340, 4337
2417, 3706, 3709, 4255, 4277, 3774, 4341, 4342, 4344, 4343, 4345
2418, 4219, 2255, 4300, 4306, 4348, 4346, 4347, 4350, 4349, 4351
2419, 4247, 2057, 4239, 4255, 4354, 4352, 4353, 4356, 4355, 4357
2420, 3262, 2190, 3240, 4286, 4359, 4358, 3367, 4361, 4360, 4362
2421, 4239, 1064, 4247, 4255, 4364, 4363, 4353, 4357, 4365, 4356
2422, 4266, 1172, 4268, 4270, 4368, 4366, 4367, 4370, 4369, 4371
2423, 4224, 4222, 4259, 4273, 4339, 4372, 4373, 4337, 4340, 4374
2424, 4273, 1131, 4217, 4278, 4377, 4375, 4376, 4379, 4378, 4380
2425, 2147, 624, 2243, 4227, 4382, 4381, 2332, 4324, 4383, 4326
2426, 4228, 1146, 4238, 4248, 4386, 4384, 4385, 4388, 4387, 4389
2427, 580, 1247, 1174, 4286, 4391, 1294, 4390, 4393, 4392, 4394
2428, 3791, 4230, 4242, 4281, 4397, 4395, 4396, 4399, 4398, 4400
2429, 4230, 2138, 4237, 4281, 4403, 4401, 4402, 4398, 4404, 4405
** ... 3290 like lines cut

** Define element set Eall
*ELSET, ELSET=Eall
Evolumes



***********************************************************
** Element sets for materials and FEM element type (solid, shell, beam, fluid)
** written by write_element_sets_material_and_femelement_type function
*ELSET,ELSET=SolidMaterialSolid
Evolumes

***********************************************************
** Node sets for fixed constraint
** written by write_node_sets_constraints_fixed function
** FemConstraintFixed
*NSET,NSET=FemConstraintFixed
10,
17,
283,
284,
285,
286,
287,
288,
289,
290,
291,
292,
293,
294,
295,
296,
297,
298,
299,
300,
** ... 328 like lines cut

***********************************************************
** Node sets for prescribed displacement constraint
** written by write_node_sets_constraints_displacement function
** FemConstraintDisplacement
*NSET,NSET=FemConstraintDisplacement
9,
16,
579,
580,
581,
582,
583,
3706,
3707,
3708,
3709,
3710,
3711,
3712,
3713,
3714,
3715,
3716,
3717,
3718,
** ... 90 like lines cut

***********************************************************
** Materials
** written by write_materials function
** Young's modulus unit is MPa = N/mm2
** FreeCAD material name: PLA
** SolidMaterial
*MATERIAL, NAME=SolidMaterial
*ELASTIC
3640, 0.360

***********************************************************
** Sections
** written by write_femelementsets function
*SOLID SECTION, ELSET=SolidMaterialSolid, MATERIAL=SolidMaterial

***********************************************************
** At least one step is needed to run an CalculiX analysis of FreeCAD
** written by write_step_begin function
*STEP
*STATIC


***********************************************************
** Fixed Constraints
** written by write_constraints_fixed function
** FemConstraintFixed
*BOUNDARY
FemConstraintFixed,1
FemConstraintFixed,2
FemConstraintFixed,3


***********************************************************
** Displacement constraint applied
** written by write_constraints_displacement function
** FemConstraintDisplacement
*BOUNDARY
FemConstraintDisplacement,1,1,2.0


***********************************************************
** Outputs --> frd file
** written by write_outputs_types function
*NODE FILE
U
*EL FILE
S, E
** outputs --> dat file
*NODE PRINT , NSET=Nall
U 
*EL PRINT , ELSET=Eall
S 

***********************************************************
** written by write_step_end function
*END STEP 

***********************************************************
** CalculiX Input file
** written by write_footer function
**   written by    --> FreeCAD 0.17.13509 (Git)
**   written on    --> Wed Apr 11 16:10:16 2018
**   file name     --> 
**   analysis name --> Analysis
**
**
**
**   Units
**
**   Geometry (mesh data)        --> mm
**   Materials (Young's modulus) --> N/mm2 = MPa
**   Loads (nodal loads)         --> N
**
