*Node, NSET=Nall
1, 95, 0, 10
2, 20, 0, 10
3, 71.2523, -6, 10
4, 71.2523, 6, 10
5, 25.227, -7.45638, 10
6, 25.227, 7.45638, 10
7, 95, 0, 0
8, 20, 0, 0
9, 71.2523, -6, 0
10, 71.2523, 6, 0
11, 25.227, -7.45638, 0
12, 25.227, 7.45638, 0
13, 23.4169, -8.75498, 10
14, 23.4169, 8.75498, 10
15, 23.4169, -8.75498, 0
16, 23.4169, 8.75498, 0
17, 95, 0, 5.01
18, 93.6392, 5.03623, 0
19, 90.0362, 8.63923, 0
20, 85.0628, 9.9998, 0
** ... 3522 like lines cut
*Element, TYPE=C3D10, ELSET=Eall
1288, 486, 271, 231, 459, 2149, 2150, 2029, 2092, 2151, 1929, 
1289, 590, 330, 562, 517, 2152, 2153, 2155, 2156, 2154, 2157, 
1290, 36, 263, 37, 110, 926, 925, 635, 1435, 2158, 1437, 
1291, 337, 438, 423, 537, 2159, 1850, 2161, 2162, 2160, 2163, 
1292, 552, 588, 596, 553, 2164, 2165, 2167, 2168, 2166, 2169, 
1293, 329, 324, 312, 538, 1236, 1251, 1218, 2171, 2170, 2172, 
1294, 333, 583, 334, 323, 2173, 2174, 1234, 1246, 2175, 1241, 
1295, 39, 114, 301, 1, 1441, 1104, 2176, 638, 1444, 2177, 
1296, 267, 376, 514, 2, 2178, 2179, 2180, 938, 1470, 2181, 
1297, 427, 538, 517, 312, 2182, 2183, 2184, 2185, 2172, 2186, 
1298, 303, 258, 120, 304, 2187, 2188, 1109, 1112, 2189, 1147, 
1299, 311, 456, 551, 517, 2190, 2191, 2193, 2194, 2192, 2195, 
1300, 205, 140, 585, 595, 1635, 2196, 2198, 2199, 2197, 2200, 
1301, 354, 355, 352, 610, 1346, 1347, 1333, 2202, 2201, 2203, 
1302, 284, 248, 494, 58, 2204, 2060, 2205, 986, 1718, 2206, 
1303, 329, 323, 515, 583, 1235, 2207, 2208, 2209, 2175, 2210, 
1304, 329, 538, 312, 517, 2171, 2172, 1218, 2211, 2183, 2186, 
1305, 481, 524, 572, 504, 2212, 2213, 2215, 2128, 2214, 2216, 
1306, 269, 270, 294, 458, 1043, 1056, 1059, 2218, 2217, 2219, 
1307, 572, 509, 504, 524, 2220, 1213, 2216, 2213, 2221, 2214, 
** ... 1785 like lines cut



***********************************************************
** Element sets for materials and FEM element type (solid, shell, beam)
** written by write_element_sets_material_and_femelement_type function
*ELSET,ELSET=MechanicalMaterialSolid
Eall

***********************************************************
** Node set for fixed constraint
** written by write_node_sets_constraints_fixed function
*NSET,NSET=FemConstraintFixed
2,
8,
40,
41,
42,
43,
44,
45,
46,
47,
48,
49,
50,
51,
52,
53,
54,
55,
56,
57,
** ... 267 like lines cut

***********************************************************
** Node sets for prescribed displacement constraint
** written by write_node_sets_constraints_displacement function

***********************************************************
** Node sets for loads
** written by write_node_sets_constraints_force function
** no point load on vertices --> no set for node loads

***********************************************************
** Materials
** written by write_materials function
** Young's modulus unit is MPa = N/mm2
**FreeCAD material name: CalculiX-Steel
*MATERIAL, NAME=MechanicalMaterial
*ELASTIC 
210000 ,  0.300
*DENSITY 
7.900e-09, 

***********************************************************
** Sections
** written by write_femelementsets function
*SOLID SECTION, ELSET=MechanicalMaterialSolid, MATERIAL=MechanicalMaterial

***********************************************************
** One step is needed to calculate the mechanical analysis of FreeCAD
** loads are applied quasi-static, means without involving the time dimension
** written by write_step_begin function
*STEP
*STATIC

***********************************************************
** Constaints
** written by write_constraints_fixed function
*BOUNDARY
FemConstraintFixed,1
FemConstraintFixed,2
FemConstraintFixed,3


***********************************************************
** Displacement constraint applied
** written by write_constraints_displacement function


***********************************************************
** Node loads
** written by write_constraints_force function
*CLOAD
** FemConstraintForce
** node loads on element Face: Fillet:Face10
1,1,0.0000000000000E+00
1,2,-0.0000000000000E+00
7,1,0.0000000000000E+00
7,2,-0.0000000000000E+00
17,1,0.0000000000000E+00
17,2,-0.0000000000000E+00
18,1,0.0000000000000E+00
18,2,-0.0000000000000E+00
19,1,0.0000000000000E+00
19,2,-0.0000000000000E+00
20,1,0.0000000000000E+00
20,2,-0.0000000000000E+00
21,1,0.0000000000000E+00
21,2,-0.0000000000000E+00
22,1,0.0000000000000E+00
22,2,-0.0000000000000E+00
23,1,0.0000000000000E+00
23,2,-0.0000000000000E+00
24,1,0.0000000000000E+00
24,2,-0.0000000000000E+00
** ... 212 like lines cut



***********************************************************
** Element + CalculiX face + load in [MPa]
** written by write_constraints_pressure function

***********************************************************
** Outputs --> frd file
** written by write_outputs_types function
*NODE FILE
U
*EL FILE
S, E
** outputs --> dat file
*NODE PRINT , NSET=Nall 
U 
*EL PRINT , ELSET=Eall 
S 

***********************************************************
** written by write_step_end function
*END STEP 

***********************************************************
** CalculiX Input file
** written by write_footer function
**   written by    --> FreeCAD 0.16.6712 (Git)
**   written on    --> Wed Apr 11 11:01:41 2018
**   file name     --> conrod.fcstd
**   analysis name --> MechanicalAnalysis
**
**
**
**   Units
**
**   Geometry (mesh data)        --> mm
**   Materials (Young's modulus) --> N/mm2 = MPa
**   Loads (nodal loads)         --> N
**
